<?xml version="1.0" encoding="UTF-8"?>

<!-- generated on 2025-09-08 16:54:20 by Eclipse SUMO netedit Version 1.23.1
-->

<routes xmlns:xsi="http://www.w3.org/2001/XMLSchema-instance" xsi:noNamespaceSchemaLocation="http://sumo.dlr.de/xsd/routes_file.xsd">
    <!-- Vehicles, persons and containers (sorted by depart) -->

    <vType id="t0" speedDev="0.1" speedFactor="1.2"/>

    <routeDistribution id="routedist1">
        <route id="route_ws" edges="w w_t t_s"/>
        <route id="route_we" edges="w w_t t_e"/>
        <route id="route_wn" edges="w w_t t_n"/>
    </routeDistribution>

    <routeDistribution id="routedist2">
        <route id="route_se" edges="s s_t t_e"/>
        <route id="route_sn" edges="s s_t t_n"/>
        <route id="route_sw" edges="s s_t t_w"/>
    </routeDistribution>

    <routeDistribution id="routedist3">
        <route id="route_en" edges="e e_t t_n"/>
        <route id="route_es" edges="e e_t t_s"/>
        <route id="route_ew" edges="e e_t t_w"/>
    </routeDistribution>

    <routeDistribution id="routedist4">
        <route id="route_ns" edges="n n_t t_s"/>
        <route id="route_ne" edges="n n_t t_e"/>
        <route id="route_nw" edges="n n_t t_w"/>
    </routeDistribution>


    <flow id="0" route="routedist1" begin="0" end="2500" type="t0" vehsPerHour="720" departSpeed="random" departPos="base" departLane="random"/>
    <flow id="1" route="routedist2" begin="0" end="2500" type="t0" vehsPerHour="360" departSpeed="random" departPos="base" departLane="random"/>
    <flow id="2" route="routedist3" begin="0" end="2500" type="t0" vehsPerHour="720" departSpeed="random" departPos="base" departLane="random"/>
    <flow id="3" route="routedist4" begin="0" end="2500" type="t0" vehsPerHour="360" departSpeed="random" departPos="base" departLane="random"/>

    <flow id="4" route="routedist1" begin="2500" end="5000" type="t0" vehsPerHour="360" departSpeed="random" departPos="base" departLane="random"/>
    <flow id="5" route="routedist2" begin="2500" end="5000" type="t0" vehsPerHour="720" departSpeed="random" departPos="base" departLane="random"/>
    <flow id="6" route="routedist3" begin="2500" end="5000" type="t0" vehsPerHour="360" departSpeed="random" departPos="base" departLane="random"/>
    <flow id="7" route="routedist4" begin="2500" end="5000" type="t0" vehsPerHour="720" departSpeed="random" departPos="base" departLane="random"/>

    <!-- <flow id="4" route="route_sn" begin="0" end="1000" type="t0" vehsPerHour="360" departSpeed="random" departPos="base" departLane="random"/>
    <flow id="5" route="route_sw" begin="0" end="1000" type="t0" vehsPerHour="360" departSpeed="random" departPos="base" departLane="random"/>

    <flow id="6" route="route_en" begin="0" end="1000" type="t0" vehsPerHour="360" departSpeed="random" departPos="base" departLane="random"/>
    <flow id="7" route="route_es" begin="0" end="1000" type="t0" vehsPerHour="360" departSpeed="random" departPos="base" departLane="random"/>
    <flow id="8" route="route_ew" begin="0" end="1000" type="t0" vehsPerHour="360" departSpeed="random" departPos="base" departLane="random"/>

    <flow id="9" route="route_nw" begin="0" end="1000" type="t0" vehsPerHour="360" departSpeed="random" departPos="base" departLane="random"/>
    <flow id="10" route="route_ne" begin="0" end="1000" type="t0" vehsPerHour="360" departSpeed="random" departPos="base" departLane="random"/>
    <flow id="11" route="route_ns" begin="0" end="1000" type="t0" vehsPerHour="360" departSpeed="random" departPos="base" departLane="random"/> -->

</routes>
