<?xml version="1.0" encoding="UTF-8"?>

<!-- generated on 2025-09-08 16:54:20 by Eclipse SUMO netedit Version 1.23.1
-->

<routes xmlns:xsi="http://www.w3.org/2001/XMLSchema-instance" xsi:noNamespaceSchemaLocation="http://sumo.dlr.de/xsd/routes_file.xsd">
    <!-- Vehicles, persons and containers (sorted by depart) -->

    <vType id="t0" speedDev="0.1" speedFactor="1.2"/>

    <route id="route_ws" edges="w w_t t_s"/>
    <route id="route_we" edges="w w_t t_e"/>
    <route id="route_wn" edges="w w_t t_n"/>

    <route id="route_se" edges="s s_t t_e"/>
    <route id="route_sn" edges="s s_t t_n"/>
    <route id="route_sw" edges="s s_t t_w"/>

    <route id="route_en" edges="e e_t t_n"/>
    <route id="route_es" edges="e e_t t_s"/>
    <route id="route_ew" edges="e e_t t_w"/>

    <route id="route_ns" edges="n n_t t_s"/>
    <route id="route_ne" edges="n n_t t_e"/>
    <route id="route_nw" edges="n n_t t_w"/>


    <flow id="0" route="route_ws" begin="0" end="1000" type="t0" vehsPerHour="360" departSpeed="random" departPos="base" departLane="random"/>
    <flow id="1" route="route_we" begin="0" end="1000" type="t0" vehsPerHour="360" departSpeed="random" departPos="base" departLane="random"/>
    <flow id="2" route="route_wn" begin="0" end="1000" type="t0" vehsPerHour="360" departSpeed="random" departPos="base" departLane="random"/>

    <flow id="3" route="route_se" begin="0" end="1000" type="t0" vehsPerHour="360" departSpeed="random" departPos="base" departLane="random"/>
    <flow id="4" route="route_sn" begin="0" end="1000" type="t0" vehsPerHour="360" departSpeed="random" departPos="base" departLane="random"/>
    <flow id="5" route="route_sw" begin="0" end="1000" type="t0" vehsPerHour="360" departSpeed="random" departPos="base" departLane="random"/>

    <flow id="6" route="route_en" begin="0" end="1000" type="t0" vehsPerHour="360" departSpeed="random" departPos="base" departLane="random"/>
    <flow id="7" route="route_es" begin="0" end="1000" type="t0" vehsPerHour="360" departSpeed="random" departPos="base" departLane="random"/>
    <flow id="8" route="route_ew" begin="0" end="1000" type="t0" vehsPerHour="360" departSpeed="random" departPos="base" departLane="random"/>

    <flow id="9" route="route_nw" begin="0" end="1000" type="t0" vehsPerHour="360" departSpeed="random" departPos="base" departLane="random"/>
    <flow id="10" route="route_ne" begin="0" end="1000" type="t0" vehsPerHour="360" departSpeed="random" departPos="base" departLane="random"/>
    <flow id="11" route="route_ns" begin="0" end="1000" type="t0" vehsPerHour="360" departSpeed="random" departPos="base" departLane="random"/>
    

    <flow id="12" route="route_ws" begin="1000" end="2000" type="t0" vehsPerHour="360" departSpeed="random" departPos="base" departLane="random"/>
    <flow id="13" route="route_we" begin="1000" end="2000" type="t0" vehsPerHour="360" departSpeed="random" departPos="base" departLane="random"/>
    <flow id="14" route="route_wn" begin="1000" end="2000" type="t0" vehsPerHour="360" departSpeed="random" departPos="base" departLane="random"/>

    <flow id="15" route="route_se" begin="1000" end="2000" type="t0" vehsPerHour="144" departSpeed="random" departPos="base" departLane="random"/>
    <flow id="16" route="route_sn" begin="1000" end="2000" type="t0" vehsPerHour="144" departSpeed="random" departPos="base" departLane="random"/>
    <flow id="17" route="route_sw" begin="1000" end="2000" type="t0" vehsPerHour="144" departSpeed="random" departPos="base" departLane="random"/>

    <flow id="18" route="route_en" begin="1000" end="2000" type="t0" vehsPerHour="360" departSpeed="random" departPos="base" departLane="random"/>
    <flow id="19" route="route_es" begin="1000" end="2000" type="t0" vehsPerHour="360" departSpeed="random" departPos="base" departLane="random"/>
    <flow id="20" route="route_ew" begin="1000" end="2000" type="t0" vehsPerHour="360" departSpeed="random" departPos="base" departLane="random"/>

    <flow id="21" route="route_nw" begin="1000" end="2000" type="t0" vehsPerHour="144" departSpeed="random" departPos="base" departLane="random"/>
    <flow id="22" route="route_ne" begin="1000" end="2000" type="t0" vehsPerHour="144" departSpeed="random" departPos="base" departLane="random"/>
    <flow id="23" route="route_ns" begin="1000" end="2000" type="t0" vehsPerHour="144" departSpeed="random" departPos="base" departLane="random"/>


    <flow id="24" route="route_ws" begin="2000" end="3000" type="t0" vehsPerHour="144" departSpeed="random" departPos="base" departLane="random"/>
    <flow id="25" route="route_we" begin="2000" end="3000" type="t0" vehsPerHour="144" departSpeed="random" departPos="base" departLane="random"/>
    <flow id="26" route="route_wn" begin="2000" end="3000" type="t0" vehsPerHour="144" departSpeed="random" departPos="base" departLane="random"/>

    <flow id="27" route="route_se" begin="2000" end="3000" type="t0" vehsPerHour="360" departSpeed="random" departPos="base" departLane="random"/>
    <flow id="28" route="route_sn" begin="2000" end="3000" type="t0" vehsPerHour="360" departSpeed="random" departPos="base" departLane="random"/>
    <flow id="29" route="route_sw" begin="2000" end="3000" type="t0" vehsPerHour="360" departSpeed="random" departPos="base" departLane="random"/>

    <flow id="30" route="route_en" begin="2000" end="3000" type="t0" vehsPerHour="144" departSpeed="random" departPos="base" departLane="random"/>
    <flow id="31" route="route_es" begin="2000" end="3000" type="t0" vehsPerHour="144" departSpeed="random" departPos="base" departLane="random"/>
    <flow id="32" route="route_ew" begin="2000" end="3000" type="t0" vehsPerHour="144" departSpeed="random" departPos="base" departLane="random"/>

    <flow id="33" route="route_nw" begin="2000" end="3000" type="t0" vehsPerHour="360" departSpeed="random" departPos="base" departLane="random"/>
    <flow id="34" route="route_ne" begin="2000" end="3000" type="t0" vehsPerHour="360" departSpeed="random" departPos="base" departLane="random"/>
    <flow id="35" route="route_ns" begin="2000" end="3000" type="t0" vehsPerHour="360" departSpeed="random" departPos="base" departLane="random"/>


    <flow id="36" route="route_ws" begin="3000" end="4500" type="t0" vehsPerHour="144" departSpeed="random" departPos="base" departLane="random"/>
    <flow id="37" route="route_we" begin="3000" end="4500" type="t0" vehsPerHour="144" departSpeed="random" departPos="base" departLane="random"/>
    <flow id="38" route="route_wn" begin="3000" end="4500" type="t0" vehsPerHour="360" departSpeed="random" departPos="base" departLane="random"/>

    <flow id="39" route="route_se" begin="3000" end="4500" type="t0" vehsPerHour="144" departSpeed="random" departPos="base" departLane="random"/>
    <flow id="40" route="route_sn" begin="3000" end="4500" type="t0" vehsPerHour="144" departSpeed="random" departPos="base" departLane="random"/>
    <flow id="41" route="route_sw" begin="3000" end="4500" type="t0" vehsPerHour="360" departSpeed="random" departPos="base" departLane="random"/>

    <flow id="42" route="route_en" begin="3000" end="4500" type="t0" vehsPerHour="144" departSpeed="random" departPos="base" departLane="random"/>
    <flow id="43" route="route_es" begin="3000" end="4500" type="t0" vehsPerHour="360" departSpeed="random" departPos="base" departLane="random"/>
    <flow id="44" route="route_ew" begin="3000" end="4500" type="t0" vehsPerHour="144" departSpeed="random" departPos="base" departLane="random"/>

    <flow id="45" route="route_nw" begin="3000" end="4500" type="t0" vehsPerHour="144" departSpeed="random" departPos="base" departLane="random"/>
    <flow id="46" route="route_ne" begin="3000" end="4500" type="t0" vehsPerHour="360" departSpeed="random" departPos="base" departLane="random"/>
    <flow id="47" route="route_ns" begin="3000" end="4500" type="t0" vehsPerHour="144" departSpeed="random" departPos="base" departLane="random"/>

</routes>
