<?xml version="1.0" encoding="UTF-8"?>

<!-- generated on 2025-09-08 16:54:20 by Eclipse SUMO netedit Version 1.23.1
-->

<routes xmlns:xsi="http://www.w3.org/2001/XMLSchema-instance" xsi:noNamespaceSchemaLocation="http://sumo.dlr.de/xsd/routes_file.xsd">
    <!-- Vehicles, persons and containers (sorted by depart) -->

    <vType id="t0" speedDev="0.1" speedFactor="1.2"/>

    <route id="route_ws" edges="w w_t t_s"/>
    <route id="route_we" edges="w w_t t_e"/>
    <route id="route_wn" edges="w w_t t_n"/>

    <route id="route_se" edges="s s_t t_e"/>
    <route id="route_sn" edges="s s_t t_n"/>
    <route id="route_sw" edges="s s_t t_w"/>

    <route id="route_en" edges="e e_t t_n"/>
    <route id="route_es" edges="e e_t t_s"/>
    <route id="route_ew" edges="e e_t t_w"/>

    <route id="route_ns" edges="n n_t t_s"/>
    <route id="route_ne" edges="n n_t t_e"/>
    <route id="route_nw" edges="n n_t t_w"/>


    <!-- <flow id="0" route="route_ws" begin="0" end="5000" type="t0" vehsPerHour="360" departSpeed="random" departPos="base" departLane="random"/> -->
    <!-- <flow id="1" route="route_we" begin="0" end="5000" type="t0" vehsPerHour="1080" departSpeed="random" departPos="base" departLane="random"/> -->
    <flow id="2" route="route_wn" begin="0" end="5000" type="t0" vehsPerHour="1080" departSpeed="random" departPos="base" departLane="random"/>

    <!-- <flow id="3" route="route_se" begin="0" end="5000" type="t0" vehsPerHour="360" departSpeed="random" departPos="base" departLane="random"/> -->
    <!-- <flow id="4" route="route_sn" begin="0" end="5000" type="t0" vehsPerHour="1080" departSpeed="random" departPos="base" departLane="random"/> -->
    <!-- <flow id="5" route="route_sw" begin="0" end="5000" type="t0" vehsPerHour="360" departSpeed="random" departPos="base" departLane="random"/> -->

    <!-- <flow id="6" route="route_en" begin="0" end="5000" type="t0" vehsPerHour="360" departSpeed="random" departPos="base" departLane="random"/> -->
    <flow id="7" route="route_es" begin="0" end="5000" type="t0" vehsPerHour="1080" departSpeed="random" departPos="base" departLane="random"/>
    <!-- <flow id="8" route="route_ew" begin="0" end="5000" type="t0" vehsPerHour="1080" departSpeed="random" departPos="base" departLane="random"/> -->

    <!-- <flow id="9" route="route_nw" begin="0" end="5000" type="t0" vehsPerHour="360" departSpeed="random" departPos="base" departLane="random"/> -->
    <!-- <flow id="10" route="route_ne" begin="0" end="5000" type="t0" vehsPerHour="360" departSpeed="random" departPos="base" departLane="random"/> -->
    <!-- <flow id="11" route="route_ns" begin="0" end="5000" type="t0" vehsPerHour="1080" departSpeed="random" departPos="base" departLane="random"/> -->
    

</routes>
