<?xml version="1.0" encoding="UTF-8"?>

<!-- generated on 2025-10-20 15:07:32 by Eclipse SUMO netedit Version 1.23.1
<neteditConfiguration xmlns:xsi="http://www.w3.org/2001/XMLSchema-instance" xsi:noNamespaceSchemaLocation="http://sumo.dlr.de/xsd/neteditConfiguration.xsd">

    <input>
        <sumo-net-file value="C:\Users\riku520\sumo-rl\sumo_rl\nets\baseline\baseline3.net.xml"/>
    </input>

    <output>
        <output-file value="C:\Users\riku520\sumo-rl\sumo_rl\nets\baseline\baseline3.net.xml"/>
    </output>

    <processing>
        <geometry.min-radius.fix.railways value="false"/>
        <geometry.avoid-overlap value="false"/>
        <geometry.max-grade.fix value="false"/>
        <offset.disable-normalization value="true"/>
        <lefthand value="0"/>
    </processing>

    <junctions>
        <no-turnarounds value="true"/>
        <junctions.corner-detail value="5"/>
        <junctions.limit-turn-speed value="5.50"/>
        <rectangular-lane-cut value="0"/>
    </junctions>

    <pedestrian>
        <walkingareas value="0"/>
    </pedestrian>

</neteditConfiguration>
-->

<net version="1.20" junctionCornerDetail="5" limitTurnSpeed="5.50" avoidOverlap="0" xmlns:xsi="http://www.w3.org/2001/XMLSchema-instance" xsi:noNamespaceSchemaLocation="http://sumo.dlr.de/xsd/net_file.xsd">

    <location netOffset="0.00,0.00" convBoundary="0.00,0.00,400.00,400.00" origBoundary="-10000000000.00,-10000000000.00,10000000000.00,10000000000.00" projParameter="!"/>

    <edge id=":J5_0" function="internal">
        <lane id=":J5_0_0" index="0" speed="13.89" length="8.40" shape="146.00,198.40 148.46,197.90 150.00,196.80 151.54,195.70 154.00,195.20"/>
        <lane id=":J5_0_1" index="1" speed="13.89" length="8.40" shape="146.00,198.40 154.00,198.40"/>
    </edge>
    <edge id=":J6_0" function="internal">
        <lane id=":J6_0_0" index="0" speed="13.89" length="8.40" shape="201.60,146.00 202.10,148.46 203.20,150.00 204.30,151.54 204.80,154.00"/>
        <lane id=":J6_0_1" index="1" speed="13.89" length="8.40" shape="201.60,146.00 201.60,154.00"/>
    </edge>
    <edge id=":J7_0" function="internal">
        <lane id=":J7_0_0" index="0" speed="13.89" length="8.40" shape="254.00,201.60 251.54,202.10 250.00,203.20 248.46,204.30 246.00,204.80"/>
        <lane id=":J7_0_1" index="1" speed="13.89" length="8.40" shape="254.00,201.60 246.00,201.60"/>
    </edge>
    <edge id=":J8_0" function="internal">
        <lane id=":J8_0_0" index="0" speed="13.89" length="8.40" shape="198.40,254.00 197.90,251.54 196.80,250.00 195.70,248.46 195.20,246.00"/>
        <lane id=":J8_0_1" index="1" speed="13.89" length="8.40" shape="198.40,254.00 198.40,246.00"/>
    </edge>
    <edge id=":t_0" function="internal">
        <lane id=":t_0_0" index="0" speed="7.33" length="11.73" shape="195.20,210.40 194.85,206.55 193.80,203.80 192.05,202.15 189.60,201.60"/>
    </edge>
    <edge id=":t_1" function="internal">
        <lane id=":t_1_0" index="0" speed="13.89" length="21.09" shape="195.20,210.40 195.70,203.63 196.80,198.12 197.90,193.55 198.40,189.60"/>
    </edge>
    <edge id=":t_2" function="internal">
        <lane id=":t_2_0" index="0" speed="9.26" length="7.32" shape="198.40,210.40 199.15,205.15 200.19,203.42"/>
    </edge>
    <edge id=":t_12" function="internal">
        <lane id=":t_12_0" index="0" speed="9.26" length="12.03" shape="200.19,203.42 201.40,201.40 205.15,199.15 210.40,198.40"/>
    </edge>
    <edge id=":t_3" function="internal">
        <lane id=":t_3_0" index="0" speed="7.33" length="11.73" shape="210.40,204.80 206.55,205.15 203.80,206.20 202.15,207.95 201.60,210.40"/>
    </edge>
    <edge id=":t_4" function="internal">
        <lane id=":t_4_0" index="0" speed="13.89" length="21.09" shape="210.40,204.80 203.63,204.30 198.12,203.20 193.55,202.10 189.60,201.60"/>
    </edge>
    <edge id=":t_5" function="internal">
        <lane id=":t_5_0" index="0" speed="9.26" length="7.32" shape="210.40,201.60 205.15,200.85 203.42,199.81"/>
    </edge>
    <edge id=":t_13" function="internal">
        <lane id=":t_13_0" index="0" speed="9.26" length="12.03" shape="203.42,199.81 201.40,198.60 199.15,194.85 198.40,189.60"/>
    </edge>
    <edge id=":t_6" function="internal">
        <lane id=":t_6_0" index="0" speed="7.33" length="11.73" shape="204.80,189.60 205.15,193.45 206.20,196.20 207.95,197.85 210.40,198.40"/>
    </edge>
    <edge id=":t_7" function="internal">
        <lane id=":t_7_0" index="0" speed="13.89" length="21.09" shape="204.80,189.60 204.30,196.37 203.20,201.88 202.10,206.45 201.60,210.40"/>
    </edge>
    <edge id=":t_8" function="internal">
        <lane id=":t_8_0" index="0" speed="9.26" length="7.32" shape="201.60,189.60 200.85,194.85 199.81,196.58"/>
    </edge>
    <edge id=":t_14" function="internal">
        <lane id=":t_14_0" index="0" speed="9.26" length="12.03" shape="199.81,196.58 198.60,198.60 194.85,200.85 189.60,201.60"/>
    </edge>
    <edge id=":t_9" function="internal">
        <lane id=":t_9_0" index="0" speed="7.33" length="11.73" shape="189.60,195.20 193.45,194.85 196.20,193.80 197.85,192.05 198.40,189.60"/>
    </edge>
    <edge id=":t_10" function="internal">
        <lane id=":t_10_0" index="0" speed="13.89" length="21.09" shape="189.60,195.20 196.37,195.70 201.88,196.80 206.45,197.90 210.40,198.40"/>
    </edge>
    <edge id=":t_11" function="internal">
        <lane id=":t_11_0" index="0" speed="9.26" length="7.32" shape="189.60,198.40 194.85,199.15 196.58,200.19"/>
    </edge>
    <edge id=":t_15" function="internal">
        <lane id=":t_15_0" index="0" speed="9.26" length="12.03" shape="196.58,200.19 198.60,201.40 200.85,205.15 201.60,210.40"/>
    </edge>

    <edge id="e" from="e" to="J7" priority="-1">
        <lane id="e_0" index="0" speed="13.89" length="146.00" shape="400.00,201.60 254.00,201.60"/>
    </edge>
    <edge id="e_t" from="J7" to="t" priority="-1">
        <lane id="e_t_0" index="0" speed="13.89" length="35.60" shape="246.00,204.80 210.40,204.80"/>
        <lane id="e_t_1" index="1" speed="13.89" length="35.60" shape="246.00,201.60 210.40,201.60"/>
    </edge>
    <edge id="n" from="n" to="J8" priority="-1">
        <lane id="n_0" index="0" speed="13.89" length="146.00" shape="198.40,400.00 198.40,254.00"/>
    </edge>
    <edge id="n_t" from="J8" to="t" priority="-1">
        <lane id="n_t_0" index="0" speed="13.89" length="35.60" shape="195.20,246.00 195.20,210.40"/>
        <lane id="n_t_1" index="1" speed="13.89" length="35.60" shape="198.40,246.00 198.40,210.40"/>
    </edge>
    <edge id="s" from="s" to="J6" priority="-1" length="174.40">
        <lane id="s_0" index="0" speed="13.89" length="174.40" shape="201.60,0.00 201.60,146.00"/>
    </edge>
    <edge id="s_t" from="J6" to="t" priority="-1">
        <lane id="s_t_0" index="0" speed="13.89" length="35.60" shape="204.80,154.00 204.80,189.60"/>
        <lane id="s_t_1" index="1" speed="13.89" length="35.60" shape="201.60,154.00 201.60,189.60"/>
    </edge>
    <edge id="t_e" from="t" to="e" priority="-1">
        <lane id="t_e_0" index="0" speed="13.89" length="189.60" shape="210.40,198.40 400.00,198.40"/>
    </edge>
    <edge id="t_n" from="t" to="n" priority="-1">
        <lane id="t_n_0" index="0" speed="13.89" length="189.60" shape="201.60,210.40 201.60,400.00"/>
    </edge>
    <edge id="t_s" from="t" to="s" priority="-1">
        <lane id="t_s_0" index="0" speed="13.89" length="189.60" shape="198.40,189.60 198.40,0.00"/>
    </edge>
    <edge id="t_w" from="t" to="w" priority="-1">
        <lane id="t_w_0" index="0" speed="13.89" length="189.60" shape="189.60,201.60 0.00,201.60"/>
    </edge>
    <edge id="w" from="w" to="J5" priority="-1">
        <lane id="w_0" index="0" speed="13.89" length="146.00" shape="0.00,198.40 146.00,198.40"/>
    </edge>
    <edge id="w_t" from="J5" to="t" priority="-1">
        <lane id="w_t_0" index="0" speed="13.89" length="35.60" shape="154.00,195.20 189.60,195.20"/>
        <lane id="w_t_1" index="1" speed="13.89" length="35.60" shape="154.00,198.40 189.60,198.40"/>
    </edge>

    <tlLogic id="t" type="static" programID="0" offset="0">
        <phase duration="20" state="GGgrrrGGgrrr"/>
        <phase duration="3"  state="yygrrryygrrr"/>
        <phase duration="10"  state="rrGrrrrrGrrr"/>
        <phase duration="3"  state="rryrrrrryrrr"/>
        <phase duration="20" state="rrrGGgrrrGGg"/>
        <phase duration="3"  state="rrryygrrryyg"/>
        <phase duration="10"  state="rrrrrGrrrrrG"/>
        <phase duration="3"  state="rrrrryrrrrry"/>
    </tlLogic>

    <junction id="J5" type="priority" x="150.00" y="200.00" incLanes="w_0" intLanes=":J5_0_0 :J5_0_1" shape="154.00,200.00 154.00,193.60 150.97,194.43 149.03,195.97 147.79,196.56 146.00,196.80 146.00,200.00">
        <request index="0" response="00" foes="00" cont="0"/>
        <request index="1" response="00" foes="00" cont="0"/>
    </junction>
    <junction id="J6" type="priority" x="200.00" y="150.00" incLanes="s_0" intLanes=":J6_0_0 :J6_0_1" shape="200.00,154.00 206.40,154.00 205.57,150.97 204.03,149.03 203.44,147.79 203.20,146.00 200.00,146.00">
        <request index="0" response="00" foes="00" cont="0"/>
        <request index="1" response="00" foes="00" cont="0"/>
    </junction>
    <junction id="J7" type="priority" x="250.00" y="200.00" incLanes="e_0" intLanes=":J7_0_0 :J7_0_1" shape="254.00,203.20 254.00,200.00 246.00,200.00 246.00,206.40 249.03,205.57 250.97,204.03 252.21,203.44">
        <request index="0" response="00" foes="00" cont="0"/>
        <request index="1" response="00" foes="00" cont="0"/>
    </junction>
    <junction id="J8" type="priority" x="200.00" y="250.00" incLanes="n_0" intLanes=":J8_0_0 :J8_0_1" shape="196.80,254.00 200.00,254.00 200.00,246.00 193.60,246.00 194.43,249.03 195.97,250.97 196.56,252.21">
        <request index="0" response="00" foes="00" cont="0"/>
        <request index="1" response="00" foes="00" cont="0"/>
    </junction>
    <junction id="e" type="dead_end" x="400.00" y="200.00" incLanes="t_e_0" intLanes="" shape="400.00,200.00 400.00,196.80 400.00,200.00"/>
    <junction id="n" type="dead_end" x="200.00" y="400.00" incLanes="t_n_0" intLanes="" shape="200.00,400.00 203.20,400.00 200.00,400.00"/>
    <junction id="s" type="dead_end" x="200.00" y="0.00" incLanes="t_s_0" intLanes="" shape="200.00,0.00 196.80,0.00 200.00,0.00"/>
    <junction id="t" type="traffic_light" x="200.00" y="200.00" incLanes="n_t_0 n_t_1 e_t_0 e_t_1 s_t_0 s_t_1 w_t_0 w_t_1" intLanes=":t_0_0 :t_1_0 :t_12_0 :t_3_0 :t_4_0 :t_13_0 :t_6_0 :t_7_0 :t_14_0 :t_9_0 :t_10_0 :t_15_0" shape="193.60,210.40 203.20,210.40 204.00,208.18 205.00,207.40 206.40,206.84 208.20,206.51 210.40,206.40 210.40,196.80 208.18,196.00 207.40,195.00 206.84,193.60 206.51,191.80 206.40,189.60 196.80,189.60 196.00,191.82 195.00,192.60 193.60,193.16 191.80,193.49 189.60,193.60 189.60,203.20 191.82,204.00 192.60,205.00 193.16,206.40 193.49,208.20">
        <request index="0"  response="000000000000" foes="000100010000" cont="0"/>
        <request index="1"  response="100000100000" foes="111100110000" cont="0"/>
        <request index="2"  response="100011100000" foes="110011110000" cont="1"/>
        <request index="3"  response="000010000000" foes="100010000000" cont="0"/>
        <request index="4"  response="000110000111" foes="100110000111" cont="0"/>
        <request index="5"  response="011110000110" foes="011110000110" cont="1"/>
        <request index="6"  response="000000000000" foes="010000000100" cont="0"/>
        <request index="7"  response="100000100000" foes="110000111100" cont="0"/>
        <request index="8"  response="100000100011" foes="110000110011" cont="1"/>
        <request index="9"  response="000000000010" foes="000000100010" cont="0"/>
        <request index="10" response="000111000110" foes="000111100110" cont="0"/>
        <request index="11" response="000110011110" foes="000110011110" cont="1"/>
    </junction>
    <junction id="w" type="dead_end" x="0.00" y="200.00" incLanes="t_w_0" intLanes="" shape="0.00,200.00 0.00,203.20 0.00,200.00"/>

    <junction id=":t_12_0" type="internal" x="200.19" y="203.42" incLanes=":t_2_0 s_t_0" intLanes=":t_4_0 :t_5_0 :t_6_0 :t_7_0 :t_10_0 :t_11_0"/>
    <junction id=":t_13_0" type="internal" x="203.42" y="199.81" incLanes=":t_5_0 w_t_0" intLanes=":t_1_0 :t_2_0 :t_7_0 :t_8_0 :t_9_0 :t_10_0"/>
    <junction id=":t_14_0" type="internal" x="199.81" y="196.58" incLanes=":t_8_0 n_t_0" intLanes=":t_0_0 :t_1_0 :t_4_0 :t_5_0 :t_10_0 :t_11_0"/>
    <junction id=":t_15_0" type="internal" x="196.58" y="200.19" incLanes=":t_11_0 e_t_0" intLanes=":t_1_0 :t_2_0 :t_3_0 :t_4_0 :t_7_0 :t_8_0"/>

    <connection from="e" to="e_t" fromLane="0" toLane="0" via=":J7_0_0" dir="s" state="M"/>
    <connection from="e" to="e_t" fromLane="0" toLane="1" via=":J7_0_1" dir="s" state="M"/>
    <connection from="e_t" to="t_n" fromLane="0" toLane="0" via=":t_3_0" tl="t" linkIndex="3" dir="r" state="o"/>
    <connection from="e_t" to="t_w" fromLane="0" toLane="0" via=":t_4_0" tl="t" linkIndex="4" dir="s" state="o"/>
    <connection from="e_t" to="t_s" fromLane="1" toLane="0" via=":t_5_0" tl="t" linkIndex="5" dir="l" state="o"/>
    <connection from="n" to="n_t" fromLane="0" toLane="0" via=":J8_0_0" dir="s" state="M"/>
    <connection from="n" to="n_t" fromLane="0" toLane="1" via=":J8_0_1" dir="s" state="M"/>
    <connection from="n_t" to="t_w" fromLane="0" toLane="0" via=":t_0_0" tl="t" linkIndex="0" dir="r" state="O"/>
    <connection from="n_t" to="t_s" fromLane="0" toLane="0" via=":t_1_0" tl="t" linkIndex="1" dir="s" state="O"/>
    <connection from="n_t" to="t_e" fromLane="1" toLane="0" via=":t_2_0" tl="t" linkIndex="2" dir="l" state="o"/>
    <connection from="s" to="s_t" fromLane="0" toLane="0" via=":J6_0_0" dir="s" state="M"/>
    <connection from="s" to="s_t" fromLane="0" toLane="1" via=":J6_0_1" dir="s" state="M"/>
    <connection from="s_t" to="t_e" fromLane="0" toLane="0" via=":t_6_0" tl="t" linkIndex="6" dir="r" state="O"/>
    <connection from="s_t" to="t_n" fromLane="0" toLane="0" via=":t_7_0" tl="t" linkIndex="7" dir="s" state="O"/>
    <connection from="s_t" to="t_w" fromLane="1" toLane="0" via=":t_8_0" tl="t" linkIndex="8" dir="l" state="o"/>
    <connection from="w" to="w_t" fromLane="0" toLane="0" via=":J5_0_0" dir="s" state="M"/>
    <connection from="w" to="w_t" fromLane="0" toLane="1" via=":J5_0_1" dir="s" state="M"/>
    <connection from="w_t" to="t_s" fromLane="0" toLane="0" via=":t_9_0" tl="t" linkIndex="9" dir="r" state="o"/>
    <connection from="w_t" to="t_e" fromLane="0" toLane="0" via=":t_10_0" tl="t" linkIndex="10" dir="s" state="o"/>
    <connection from="w_t" to="t_n" fromLane="1" toLane="0" via=":t_11_0" tl="t" linkIndex="11" dir="l" state="o"/>

    <connection from=":J5_0" to="w_t" fromLane="0" toLane="0" dir="s" state="M"/>
    <connection from=":J5_0" to="w_t" fromLane="1" toLane="1" dir="s" state="M"/>
    <connection from=":J6_0" to="s_t" fromLane="0" toLane="0" dir="s" state="M"/>
    <connection from=":J6_0" to="s_t" fromLane="1" toLane="1" dir="s" state="M"/>
    <connection from=":J7_0" to="e_t" fromLane="0" toLane="0" dir="s" state="M"/>
    <connection from=":J7_0" to="e_t" fromLane="1" toLane="1" dir="s" state="M"/>
    <connection from=":J8_0" to="n_t" fromLane="0" toLane="0" dir="s" state="M"/>
    <connection from=":J8_0" to="n_t" fromLane="1" toLane="1" dir="s" state="M"/>
    <connection from=":t_0" to="t_w" fromLane="0" toLane="0" dir="r" state="M"/>
    <connection from=":t_1" to="t_s" fromLane="0" toLane="0" dir="s" state="M"/>
    <connection from=":t_2" to="t_e" fromLane="0" toLane="0" via=":t_12_0" dir="l" state="m"/>
    <connection from=":t_12" to="t_e" fromLane="0" toLane="0" dir="l" state="M"/>
    <connection from=":t_3" to="t_n" fromLane="0" toLane="0" dir="r" state="M"/>
    <connection from=":t_4" to="t_w" fromLane="0" toLane="0" dir="s" state="M"/>
    <connection from=":t_5" to="t_s" fromLane="0" toLane="0" via=":t_13_0" dir="l" state="m"/>
    <connection from=":t_13" to="t_s" fromLane="0" toLane="0" dir="l" state="M"/>
    <connection from=":t_6" to="t_e" fromLane="0" toLane="0" dir="r" state="M"/>
    <connection from=":t_7" to="t_n" fromLane="0" toLane="0" dir="s" state="M"/>
    <connection from=":t_8" to="t_w" fromLane="0" toLane="0" via=":t_14_0" dir="l" state="m"/>
    <connection from=":t_14" to="t_w" fromLane="0" toLane="0" dir="l" state="M"/>
    <connection from=":t_9" to="t_s" fromLane="0" toLane="0" dir="r" state="M"/>
    <connection from=":t_10" to="t_e" fromLane="0" toLane="0" dir="s" state="M"/>
    <connection from=":t_11" to="t_n" fromLane="0" toLane="0" via=":t_15_0" dir="l" state="m"/>
    <connection from=":t_15" to="t_n" fromLane="0" toLane="0" dir="l" state="M"/>

</net>
